11
 energy: -10.500827672982 gnorm: 0.000523414622 xtb: 6.4.1 (conda-forge)
C        -5.47755155927663    1.91096783090613   -0.07170582428722
C        -3.95336299037877    1.91334537733255   -0.07169306750633
H        -5.86428591347156    2.92783655100530   -0.07191798855213
H        -5.85729776432798    1.39887668848614   -0.95351791341340
H        -5.85734171558776    1.39923132616093    0.81030267316601
C        -3.38963814007385    0.49722708071695   -0.07198330209489
H        -3.59179281898047    2.44756101874325   -0.95330952740236
H        -3.59179524295359    2.44721238464771    0.81013981911419
H        -2.30195196375122    0.51587202655722   -0.07194633435931
H        -3.72398010630353   -0.04564024786251    0.80993147102214
H        -3.72392408025465   -0.04524358071493   -0.95416160281632
