12
 energy: -16.983464002932 gnorm: 0.000597176591 xtb: 6.4.1 (conda-forge)
O         1.82547974115653    0.06573607388176    0.30597802396485
N        -0.43968612645267   -0.03028658784193    0.23740598169332
C        -0.61445919680347    1.40133727673406    0.29459490614619
C        -1.63722472826194   -0.82174718916516    0.16071176138472
C         0.79410154872740   -0.56020596483042    0.24740474069839
H        -1.18380940251888    1.68182072528192    1.18412328605626
H        -1.14318484559030    1.75716881907369   -0.59301840684420
H         0.37356738614534    1.85577836881537    0.33643243338770
H        -2.27603803415878   -0.62868655847981    1.02696149823325
H        -1.38257543575299   -1.87966746320492    0.14002391572515
H        -2.19997829183840   -0.57578218812535   -0.74438296077243
H         0.77181928697084   -1.66542519391041    0.19978759867823
