* xyz   0   1
  C    -5.467000     1.905000    -0.072000
  C    -3.959000     1.905000    -0.072000
  H    -5.856000     2.951000    -0.072000
  H    -5.860000     1.382000    -0.976000
  H    -5.860000     1.381000     0.833000
  C    -3.400000     0.505000    -0.072000
  H    -3.585000     2.457000    -0.974000
  H    -3.585000     2.457000     0.831000
  H    -2.283000     0.532000    -0.072000
  H    -3.739000    -0.054000     0.833000
  H    -3.739000    -0.054000    -0.977000
 *

%pal nprocs  12 end
%maxcore  62

%Compound

New_Step
! opt r2SCAN-3c nopop
%base "propane_initial"
STEP_END

New_Step
! opt freq B3LYP D4 def2-TZVP def2/J RIJCOSX PModel nopop
%base "propane_opt"
STEP_END

New_Step
! B3LYP D4 def2-TZVP def2/J RIJCOSX nbo nopop
%base "propane_nbo"
%nbo NBOKEYLIST = "$nbo BNDIDX $end" end
STEP_END

New_Step
! HF 6-31G* chelpg Hirshfeld nopop
%base "propane_charge"
STEP_END


END
